12
Coordinates from ORCA-job geom_DFT_S0
  C   -0.73895824934313      0.00294638769186     -0.14566415927296
  O   -1.93848395335699     -0.00197597842044     -0.25156874899442
  C   0.15228392120415     -1.17476216319274     -0.04106159511399
  C   1.41676757688098     -0.77877353788936      0.07445798683754
  C   1.57766463801379      0.71656686015187      0.06253784338455
  C   0.14863468932969      1.24390882266436     -0.09581071080001
  H   -0.21691548758531     -2.19051499699157     -0.05706325363242
  H   2.26815230433486     -1.44278231386156      0.16975527691253
  H   2.23557934438154      1.02575126838914     -0.75357519188282
  H   2.05143299959616      1.05938038350333      0.98590178436208
  H   0.00247169859074      1.81639071619253     -1.01259525652780
  H   -0.17202948204650      1.87714455176258      0.73196602472773
