cpo_000_000
 OpenBabel10082320453D

 12 12  0  0  0  0  0  0  0  0999 V2000
   -0.6861    0.0124   -0.0978 C   0  0  0  0  0  0  0  0  0  0  0  0
   -1.9061   -0.0234   -0.1333 O   0  0  0  0  0  0  0  0  0  0  0  0
    0.1458   -1.1962   -0.0497 C   0  0  0  0  0  0  0  0  0  0  0  0
    1.4081   -0.7689    0.0402 C   0  0  0  0  0  0  0  0  0  0  0  0
    1.5580    0.7173    0.0872 C   0  0  0  0  0  0  0  0  0  0  0  0
    0.1487    1.2590   -0.1261 C   0  0  0  0  0  0  0  0  0  0  0  0
   -0.2392   -2.2003   -0.0853 H   0  0  0  0  0  0  0  0  0  0  0  0
    2.2593   -1.4367    0.0931 H   0  0  0  0  0  0  0  0  0  0  0  0
    2.2403    1.0751   -0.6903 H   0  0  0  0  0  0  0  0  0  0  0  0
    1.9547    1.0277    1.0594 H   0  0  0  0  0  0  0  0  0  0  0  0
    0.0499    1.7433   -1.1021 H   0  0  0  0  0  0  0  0  0  0  0  0
   -0.1469    1.9441    0.6719 H   0  0  0  0  0  0  0  0  0  0  0  0
  1  3  1  0  0  0  0
  2  1  2  0  0  0  0
  3  4  2  0  0  0  0
  4  5  1  0  0  0  0
  4  8  1  0  0  0  0
  5 10  1  0  0  0  0
  6  1  1  0  0  0  0
  6  5  1  0  0  0  0
  6 12  1  0  0  0  0
  7  3  1  0  0  0  0
  9  5  1  0  0  0  0
 11  6  1  0  0  0  0
M  END
$$$$
